/*--------------------------------*- C++ -*----------------------------------*\
  =========                 |
  \\      /  F ield         | OpenFOAM: The Open Source CFD Toolbox
   \\    /   O peration     | Website:  https://openfoam.org
    \\  /    A nd           | Version:  8
     \\/     M anipulation  |
\*---------------------------------------------------------------------------*/
FoamFile
{
    version     0.0;
    format      ascii;
    class       polyBoundaryMesh;
    location    "constant/ground/polyMesh";
    object      boundary;
}
// * * * * * * * * * * * * * * * * * * * * * * * * * * * * * * * * * * * * * //


3
(
    sides
    {
        type            wall;
        inGroups        List<word> 0();
        nFaces          10240;
        startFace       1598412;
    }

    ground_to_air
    {
        type            mappedWall;
        nFaces          27208;
        startFace       1608652;
        sampleMode      nearestPatchFace;
        sampleRegion    air;
        samplePatch     ground;
        offsetMode      uniform;
        offset          ( 0 0 0 );
    }

    bottom
    {
        type            patch;
        nFaces          27208;
        startFace       1635860;
    }

)


// ************************************************************************* //
