/*--------------------------------*- C++ -*----------------------------------*\
  =========                 |
  \\      /  F ield         | OpenFOAM: The Open Source CFD Toolbox
   \\    /   O peration     | Website:  https://openfoam.org
    \\  /    A nd           | Version:  8
     \\/     M anipulation  |
\*---------------------------------------------------------------------------*/
FoamFile
{
    version     0.0;
    format      ascii;
    class       polyBoundaryMesh;
    location    "constant/vegetation/polyMesh";
    object      boundary;
}
// * * * * * * * * * * * * * * * * * * * * * * * * * * * * * * * * * * * * * //


8
(
    west
    {
        type            mappedPatch;
        nFaces          280;
        startFace       1764025;
        sampleMode      nearestPatchFace;
        sampleRegion    air;
        samplePatch     west;
        offsetMode      uniform;
        offset          ( 0 0 0 );
    }

    east
    {
        type            mappedPatch;
        nFaces          280;
        startFace       1764305;
        sampleMode      nearestPatchFace;
        sampleRegion    air;
        samplePatch     east;
        offsetMode      uniform;
        offset          ( 0 0 0 );
    }

    north
    {
        type            mappedPatch;
        nFaces          320;
        startFace       1764585;
        sampleMode      nearestPatchFace;
        sampleRegion    air;
        samplePatch     north;
        offsetMode      uniform;
        offset          ( 0 0 0 );
    }

    south
    {
        type            mappedPatch;
        nFaces          320;
        startFace       1764905;
        sampleMode      nearestPatchFace;
        sampleRegion    air;
        samplePatch     south;
        offsetMode      uniform;
        offset          ( 0 0 0 );
    }

    ground
    {
        type            mappedWall;
        inGroups        List<word> 0();
        nFaces          17346;
        startFace       1765225;
        sampleMode      nearestPatchFace;
        sampleRegion    air;
        samplePatch     ground;
        offsetMode      uniform;
        offset          ( 0 0 0 );
    }

    top
    {
        type            mappedPatch;
        nFaces          896;
        startFace       1782571;
        sampleMode      nearestPatchFace;
        sampleRegion    air;
        samplePatch     top;
        offsetMode      uniform;
        offset          ( 0 0 0 );
    }

    buildings
    {
        type            mappedWall;
        inGroups        List<word> 0();
        nFaces          141642;
        startFace       1783467;
        sampleMode      nearestPatchFace;
        sampleRegion    air;
        samplePatch     buildings;
        offsetMode      uniform;
        offset          ( 0 0 0 );
    }

    air_to_vegetation
    {
        type            mappedWall;
        inGroups        List<word> 0();
        nFaces          4844;
        startFace       1925109;
        sampleMode      nearestCell;
        sampleRegion    air;
        offsetMode      uniform;
        offset          ( 0 0 0 );
    }

)


// ************************************************************************* //
