/*--------------------------------*- C++ -*----------------------------------*\
| =========                 |                                                 |
| \\      /  F ield         | OpenFOAM: The Open Source CFD Toolbox           |
|  \\    /   O peration     | Version:  2.4.0                                 |
|   \\  /    A nd           | Web:      www.OpenFOAM.org                      |
|    \\/     M anipulation  |                                                 |
\*---------------------------------------------------------------------------*/
FoamFile
{
    version     2.0;
    format      ascii;
    class       volScalarField;
    location    "345600/leeward";
    object      Ts;
}
// * * * * * * * * * * * * * * * * * * * * * * * * * * * * * * * * * * * * * //

dimensions      [0 0 0 1 0 0 0];

internalField   uniform 300;

boundaryField
{
    ground_to_air
    {
        type            compressible::CFDHAMsolidTemperatureCoupledMixed;
        qrNbr           qr;
        qsNbr           qs;
        value           uniform 300;
    }
    bottom
    {
        type            fixedValue;
        value           uniform 283.15;
    }
    sides
    {
        type            zeroGradient;
    }
}


// ************************************************************************* //
