/*--------------------------------*- C++ -*----------------------------------*\
  =========                 |
  \\      /  F ield         | OpenFOAM: The Open Source CFD Toolbox
   \\    /   O peration     | Website:  https://openfoam.org
    \\  /    A nd           | Version:  8
     \\/     M anipulation  |
\*---------------------------------------------------------------------------*/
FoamFile
{
    version     0.0;
    format      ascii;
    class       polyBoundaryMesh;
    location    "constant/air/polyMesh";
    object      boundary;
}
// * * * * * * * * * * * * * * * * * * * * * * * * * * * * * * * * * * * * * //


7
(
    west
    {
        type            patch;
        nFaces          280;
        startFace       2870836;
    }

    east
    {
        type            patch;
        nFaces          280;
        startFace       2871116;
    }

    north
    {
        type            patch;
        nFaces          320;
        startFace       2871396;
    }

    south
    {
        type            patch;
        nFaces          320;
        startFace       2871716;
    }

    ground
    {
        type            mappedWall;
        inGroups        List<word> 0();
        nFaces          29218;
        startFace       2872036;
        sampleMode      nearestPatchFace;
        sampleRegion    ground;
        samplePatch     ground_to_air;
        offsetMode      uniform;
        offset          ( 0 0 0 );
    }

    top
    {
        type            patch;
        nFaces          896;
        startFace       2901254;
    }

    buildings
    {
        type            mappedWall;
        inGroups        List<word> 0();
        nFaces          141369;
        startFace       2902150;
        sampleMode      nearestPatchFace;
        sampleRegion    buildings;
        samplePatch     buildings_to_air;
        offsetMode      uniform;
        offset          ( 0 0 0 );
    }

)


// ************************************************************************* //
